
**** 05/09/09 19:55:32 ********* PSpice 9.2 (Mar 2000) ******** ID# 1 ********

 ** Profile: "SCHEMATIC1-trans"  [ D:\Ariel\Mis documentos\Facultad\Tesis\prueba\SwitchedCap\regulador-schematic1-trans.sim ] 


 ****     CIRCUIT DESCRIPTION


******************************************************************************




** Creating circuit file "regulador-schematic1-trans.sim.cir" 
** WARNING: THIS AUTOMATICALLY GENERATED FILE MAY BE OVERWRITTEN BY SUBSEQUENT SIMULATIONS

*Libraries: 
* Local Libraries :
.LIB ".\regulador.lib" 
* From [PSPICE NETLIST] section of c:\archivos de programa\Orcad\PSpice\PSpice.ini file:
.lib "nom.lib" 

*Analysis directives: 
.TRAN  0 100m 0 SKIPBP 
.OPTIONS ABSTOL= 1u
.OPTIONS CHGTOL= 0.01u
.OPTIONS RELTOL= 0.02
.OPTIONS VNTOL= 1u
.PROBE V(*) I(*) W(*) D(*) NOISE(*) 
.INC ".\regulador-SCHEMATIC1.net" 



**** INCLUDING regulador-SCHEMATIC1.net ****
* source REGULADOR
M_M1         +V CK1 N00307 -V Mbreakn           
D_D7         OUT2 N14723 D1N4148 
C_C4         N14723 N16084  10u  
R_R1         OUT2 0  100k  
M_M8         0 NCK1 N09175 +V Mbreakp           
M_M3         N00307 NCK1 +V +V Mbreakp           
M_M4         OUT NCK2 N09175 +V MbreakP           
C_C1         N12822 N00307  10u  
V_V6         NCK2 0  
+PULSE {VH} {VL} {PER/2} {TR} {TF} {PW} {PER}
V_V2         0 -V 3.3
V_V3         CK1 0  
+PULSE {VL} {VH} 0 {TR} {TF} {PW} {PER}
R_R5         N09175 N16084  .01  
M_M7         N00307 NCK2 0 +V MbreakP           
C_C2         N12606 0  10u  
M_M6         N09175 CK1 0 -V Mbreakn           
R_R4         N15629 0  .01  
V_V4         NCK1 0  
+PULSE {VH} {VL} 0 {TR} {TF} {PW} {PER}
M_M2         N09175 CK2 OUT -V Mbreakn           
M_M5         0 CK2 N00307 -V Mbreakn           
V_V5         CK2 0  
+PULSE {VL} {VH} {PER/2} {TR} {TF} {PW} {PER}
D_D6         N14723 OUT D1N4148 
V_V1         +V 0 3.3
R_R3         N12822 N09175  .01  
C_C3         OUT2 N15629  10u  
R_R2         N12606 OUT  .01  
.PARAM  TF={0.01*PER} VH=3.3 PW={0.45*PER} VL=-3.3 PER=100u TR={0.01*PER}

**** RESUMING regulador-schematic1-trans.sim.cir ****
.END

**** 05/09/09 19:55:32 ********* PSpice 9.2 (Mar 2000) ******** ID# 1 ********

 ** Profile: "SCHEMATIC1-trans"  [ D:\Ariel\Mis documentos\Facultad\Tesis\prueba\SwitchedCap\regulador-schematic1-trans.sim ] 


 ****     Diode MODEL PARAMETERS


******************************************************************************




               D1N4148         
          IS    2.682000E-09 
           N    1.836        
         ISR    1.565000E-09 
         IKF     .04417      
          BV  100            
         IBV  100.000000E-06 
          RS     .5664       
          TT   11.540000E-09 
         CJO    4.000000E-12 
          VJ     .5          
           M     .3333       


**** 05/09/09 19:55:32 ********* PSpice 9.2 (Mar 2000) ******** ID# 1 ********

 ** Profile: "SCHEMATIC1-trans"  [ D:\Ariel\Mis documentos\Facultad\Tesis\prueba\SwitchedCap\regulador-schematic1-trans.sim ] 


 ****     MOSFET MODEL PARAMETERS


******************************************************************************




               Mbreakn         Mbreakp         
               NMOS            PMOS            
       LEVEL    1               1            
           L  100.000000E-06  100.000000E-06 
           W  100.000000E-06  100.000000E-06 
         VTO    1              -1            
          KP     .05             .05         
       GAMMA    0               0            
         PHI     .6              .6          
      LAMBDA    0               0            
          IS   10.000000E-15   10.000000E-15 
          JS    0               0            
          PB     .8              .8          
        PBSW     .8              .8          
          CJ    0               0            
        CJSW    0               0            
        CGSO    0               0            
        CGDO    0               0            
        CGBO    0               0            
         TOX    0               0            
          XJ    0               0            
       UCRIT   10.000000E+03   10.000000E+03 
      DIOMOD    1               1            
         VFB    0               0            
        LETA    0               0            
        WETA    0               0            
          U0    0               0            
        TEMP    0               0            
         VDD    0               0            
       XPART    0               0            



          JOB CONCLUDED

          TOTAL JOB TIME            8.00
